5
0001 -417.031
H      0.67188000 -1.05649000  0.23421000    0.67861400 -1.03828500  0.22864100
C      1.04168000 -0.05620000 -0.07148000    1.04168200 -0.05620000 -0.07148100
H      2.15109000 -0.05620000 -0.07150000    2.13089400 -0.05620200 -0.07149600
H      0.67187000  0.17923000 -1.09059000    0.67859800  0.17494100 -1.07204400
H      0.67188000  0.70866000  0.64196000    0.67861300  0.69474600  0.62898000
8
0002 -711.117
C      0.99571000  0.01149000 -0.09922000    0.99591400  0.01151100 -0.09922100
C      2.51489000  0.01148000 -0.09922000    2.51468600  0.01146600 -0.09922600
H      0.61911000  0.74910000 -0.83887000    0.59725900  0.72987700 -0.81959600
H      0.61911000  0.28325000  0.90938000    0.59725900  0.27617000  0.88310600
H      0.61909000 -0.99785000 -0.36818000    0.59727800 -0.97153100 -0.36116700
H      2.89151000  1.02083000  0.16973000    2.91332200  0.99450900  0.16271900
H      2.89149000 -0.26027000 -1.10783000    2.91334100 -0.25319200 -1.08155300
H      2.89149000 -0.72612000  0.64042000    2.91334100 -0.70690000  0.62114800